WIDTH=32;
DEPTH=256;

ADDRESS_RADIX=HEX;
DATA_RADIX=HEX;

CONTENT BEGIN
  00 : 010000B7;
  01 : 00000F13;
  02 : 00000F93;
  03 : 00100013;
  04 : 05E01063;
  05 : 00100113;
  06 : 00200193;
  07 : 00310233;
  08 : 00300293;
  09 : 02521663;
  0A : 40228233;
  0B : 02321263;
  0C : 00411213;
  0D : 01000293;
  0E : 00521C63;
  0F : 0022D213;
  10 : 00400313;
  11 : 00621663;
  12 : 001FEF93;
  13 : 00000663;
  14 : 00100F13;
  15 : 06000863;
  16 : 00500113;
  17 : 00500193;
  18 : 00310463;
  19 : 02000063;
  1A : 00311E63;
  1B : 00400213;
  1C : 00224463;
  1D : 00000863;
  1E : 00225663;
  1F : 002FEF93;
  20 : 00000663;
  21 : 00200F13;
  22 : 02000E63;
  23 : 08000A13;
  24 : 12345AB7;
  25 : 678A8A93;
  26 : 015A2023;
  27 : 000A2B03;
  28 : 015B1663;
  29 : 004FEF93;
  2A : 00000663;
  2B : 00300F13;
  2C : 00000A63;
  2D : 0040AB83;
  2E : 0170A023;
  2F : 008FEF93;
  30 : 00000263;
  31 : 000F1663;
  32 : 01F0A023;
  33 : 00000463;
  34 : 01E0A023;
  35 : 00000113;
  36 : 022F0063;
  37 : 00100113;
  38 : 022F0063;
  39 : 00200113;
  3A : 022F0063;
  3B : 00300113;
  3C : 022F0063;
  3D : 02000263;
  3E : 04000113;
  3F : 02000063;
  40 : 07900113;
  41 : 00000C63;
  42 : 02400113;
  43 : 00000863;
  44 : 03000113;
  45 : 00000463;
  46 : 00E00113;
  47 : 07F00193;
  48 : 00819213;
  49 : 0041E1B3;
  4A : 01019213;
  4B : 0041E1B3;
  4C : 003002B3;
  4D : F8118193;
  4E : 002181B3;
  4F : 0030A623;
  50 : 0050A823;
  51 : 00000063;
  [52..FF] : 00000013;
END;
